#

@<TRIPOS>MOLECULE
LIG
105 109  0 0 0
SMALL
GASTEIGER

@<TRIPOS>ATOM
      1 C1         -6.6220    0.1373   -6.1514 C.3       1 LIG        -0.0653
      2 C2         -5.5444   -0.8739   -5.7053 C.3       1 LIG        -0.0546
      3 C3         -5.6797   -1.2740   -4.2156 C.3       1 LIG        -0.0351
      4 C4         -4.4741   -2.0393   -3.5823 C.3       1 LIG         0.0417
      5 N1         -3.3149   -1.3298   -3.0952 N.3       1 LIG        -0.0706
      6 C5         -2.8608   -0.0330   -3.0274 C.2       1 LIG         0.0479
      7 O1         -1.7903    0.0307   -2.3815 O.2       1 LIG        -0.2902
      8 C6         -3.3707    1.2821   -3.5343 C.3       1 LIG         0.0937
      9 C7         -2.3262    1.9259   -4.5223 C.3       1 LIG        -0.0127
     10 C8         -2.4749    1.7216   -6.0451 C.3       1 LIG        -0.0481
     11 C9         -3.4670    2.7960   -6.5405 C.3       1 LIG        -0.0526
     12 C10        -3.5586    3.8557   -5.4211 C.3       1 LIG        -0.0488
     13 C11        -2.5060    3.4359   -4.3631 C.3       1 LIG        -0.0232
     14 C12        -2.9118    3.5593   -2.8896 C.3       1 LIG         0.0099
     15 N2         -3.5107    2.3067   -2.5067 N.3       1 LIG        -0.0555
     16 C13        -4.1103    2.2079   -1.2490 C.2       1 LIG         0.0546
     17 O2         -3.9029    3.1414   -0.4352 O.2       1 LIG        -0.2882
     18 C14        -4.9424    1.0816   -0.7248 C.3       1 LIG         0.0928
     19 N3         -4.0421    0.2946    0.0744 N.3       1 LIG        -0.0659
     20 C15        -3.9608   -1.0689    0.1352 C.2       1 LIG         0.0496
     21 O3         -4.8685   -1.7834   -0.3460 O.2       1 LIG        -0.2899
     22 C16        -2.7831   -1.7519    0.7355 C.3       1 LIG         0.0909
     23 N4         -1.6524   -0.8763    0.6132 N.3       1 LIG        -0.0587
     24 C17        -0.4310   -1.1748    0.0829 C.2       1 LIG         0.0514
     25 O4         -0.1814   -2.3334   -0.3290 O.2       1 LIG        -0.2829
     26 C18         0.5606   -0.1702   -0.0008 C.2       1 LIG         0.0787
     27 C19         1.9311   -0.4569   -0.2042 C.2       1 LIG         0.0679
     28 N5          2.8174    0.5681   -0.3000 N.2       1 LIG        -0.2228
     29 C20         2.4434    1.8705   -0.2053 C.2       1 LIG         0.0396
     30 C21         1.0873    2.1713    0.0061 C.2       1 LIG         0.0433
     31 N6          0.2057    1.1428    0.1012 N.2       1 LIG        -0.1992
     32 C22        -3.0043   -2.1896    2.2269 C.3       1 LIG        -0.0170
     33 C23        -1.6509   -2.6586    2.9316 C.3       1 LIG        -0.0484
     34 C24        -1.7894   -3.2135    4.4702 C.3       1 LIG        -0.0529
     35 C25        -3.0169   -4.2982    4.4903 C.3       1 LIG        -0.0533
     36 C26        -4.3465   -3.7961    3.8043 C.3       1 LIG        -0.0529
     37 C27        -4.0908   -3.3136    2.3519 C.3       1 LIG        -0.0484
     38 C28        -6.2745    1.4897    0.0470 C.3       1 LIG        -0.0139
     39 C29        -7.0955    2.5412   -0.7764 C.3       1 LIG        -0.0582
     40 C30        -7.1911    0.2282    0.2204 C.3       1 LIG        -0.0582
     41 C31        -6.0033    2.0782    1.4775 C.3       1 LIG        -0.0582
     42 C32        -3.9805   -3.3371   -4.3082 C.3       1 LIG         0.1058
     43 O5         -3.4100   -3.0705   -5.5855 O.3       1 LIG        -0.3898
     44 SG         -2.2885   -4.2278   -3.0563 S         1 LIG         0.1575
     45 C33        -5.0076   -4.4047   -4.3969 C.2       1 LIG         0.0496
     46 O6         -4.8766   -5.4037   -3.6525 O.2       1 LIG        -0.2887
     47 N7         -6.0773   -4.3076   -5.2271 N.3       1 LIG        -0.0707
     48 C34        -7.1786   -5.2123   -5.2448 C.3       1 LIG         0.0142
     49 C35        -7.5528   -5.8822   -6.5752 C.3       1 LIG        -0.0358
     50 C36        -8.3915   -4.7137   -6.0433 C.3       1 LIG        -0.0358
     51 H1         -6.5284    1.0679   -5.5871 H         1 LIG         0.0230
     52 H2         -6.5031    0.3584   -7.2143 H         1 LIG         0.0230
     53 H3         -7.6180   -0.2794   -5.9869 H         1 LIG         0.0230
     54 H4         -5.6205   -1.7512   -6.3466 H         1 LIG         0.0264
     55 H5         -4.5660   -0.4461   -5.8684 H         1 LIG         0.0264
     56 H6         -6.5790   -1.8904   -4.1241 H         1 LIG         0.0283
     57 H7         -5.8776   -0.3902   -3.6141 H         1 LIG         0.0283
     58 H8         -4.8978   -2.4291   -2.6586 H         1 LIG         0.0495
     59 H9         -2.6938   -1.9394   -2.6670 H         1 LIG         0.1314
     60 H10        -4.3264    1.1779   -4.0369 H         1 LIG         0.0571
     61 H11        -1.2997    1.6729   -4.2310 H         1 LIG         0.0327
     62 H12        -1.5051    1.8939   -6.5249 H         1 LIG         0.0270
     63 H13        -2.7792    0.7107   -6.2986 H         1 LIG         0.0270
     64 H14        -4.4482    2.3541   -6.7260 H         1 LIG         0.0267
     65 H15        -3.1090    3.2453   -7.4722 H         1 LIG         0.0267
     66 H16        -4.5687    3.8671   -4.9998 H         1 LIG         0.0270
     67 H17        -3.3387    4.8536   -5.8107 H         1 LIG         0.0270
     68 H18        -1.5673    3.9727   -4.5498 H         1 LIG         0.0319
     69 H19        -2.0193    3.7283   -2.2776 H         1 LIG         0.0439
     70 H20        -3.5959    4.4025   -2.7514 H         1 LIG         0.0439
     71 H21        -5.2446    0.5052   -1.5964 H         1 LIG         0.0572
     72 H22        -3.3891    0.7890    0.5948 H         1 LIG         0.1319
     73 H23        -2.5981   -2.6559    0.1476 H         1 LIG         0.0569
     74 H24        -1.7774    0.0233    0.9532 H         1 LIG         0.1322
     75 H25         2.2703   -1.4188   -0.2800 H         1 LIG         0.0864
     76 H26         3.1400    2.6141   -0.2900 H         1 LIG         0.0855
     77 H27         0.7653    3.1393    0.0813 H         1 LIG         0.0856
     78 H28        -3.3640   -1.3167    2.7800 H         1 LIG         0.0324
     79 H29        -1.2047   -3.4112    2.2271 H         1 LIG         0.0270
     80 H30        -0.9461   -1.7877    2.8490 H         1 LIG         0.0270
     81 H31        -2.0138   -2.3831    5.1420 H         1 LIG         0.0267
     82 H32        -0.8574   -3.6838    4.7877 H         1 LIG         0.0267
     83 H33        -3.3310   -4.6291    5.5163 H         1 LIG         0.0266
     84 H34        -2.7769   -5.2644    3.9706 H         1 LIG         0.0266
     85 H35        -5.0851   -4.6019    3.7952 H         1 LIG         0.0267
     86 H36        -4.7541   -2.9640    4.3845 H         1 LIG         0.0267
     87 H37        -5.0416   -2.9445    1.9698 H         1 LIG         0.0270
     88 H38        -3.8144   -4.1699    1.7288 H         1 LIG         0.0270
     89 H39        -7.3003    2.1665   -1.7820 H         1 LIG         0.0236
     90 H40        -8.0519    2.7588   -0.2919 H         1 LIG         0.0236
     91 H41        -6.5546    3.4853   -0.8677 H         1 LIG         0.0236
     92 H42        -7.3570   -0.2671   -0.7397 H         1 LIG         0.0236
     93 H43        -8.1693    0.4983    0.6270 H         1 LIG         0.0236
     94 H44        -6.7426   -0.4925    0.9061 H         1 LIG         0.0236
     95 H45        -5.4837    3.0356    1.4327 H         1 LIG         0.0236
     96 H46        -6.9409    2.2484    2.0123 H         1 LIG         0.0236
     97 H47        -5.3987    1.3936    2.0768 H         1 LIG         0.0236
     98 H48        -2.5954   -2.5608   -5.3864 H         1 LIG         0.2103
     99 H49        -1.1581   -5.1728   -1.9806 H         1 LIG        -0.0228
    100 H50        -6.1081   -3.5596   -5.8383 H         1 LIG         0.1313
    101 H51        -7.4493   -5.7577   -4.3356 H         1 LIG         0.0469
    102 H52        -6.9107   -5.6616   -7.4312 H         1 LIG         0.0283
    103 H53        -8.0165   -6.8682   -6.4951 H         1 LIG         0.0283
    104 H54        -9.3732   -4.9788   -5.6415 H         1 LIG         0.0283
    105 H55        -8.2766   -3.7715   -6.5837 H         1 LIG         0.0283
@<TRIPOS>BOND
     1    1    2 1  
     2    1   51 1  
     3    1   52 1  
     4    1   53 1  
     5    2    3 1  
     6    2   54 1  
     7    2   55 1  
     8    3   56 1  
     9    3   57 1  
    10    4    3 1  
    11    4    5 1  
    12    4   42 1  
    13    4   58 1  
    14    5    6 1  
    15    5   59 1  
    16    6    7 2  
    17    8    6 1  
    18    8    9 1  
    19    8   15 1  
    20    8   60 1  
    21    9   10 1  
    22    9   13 1  
    23    9   61 1  
    24   10   11 1  
    25   10   62 1  
    26   10   63 1  
    27   11   12 1  
    28   11   64 1  
    29   11   65 1  
    30   12   66 1  
    31   12   67 1  
    32   13   12 1  
    33   13   14 1  
    34   13   68 1  
    35   14   15 1  
    36   14   69 1  
    37   14   70 1  
    38   15   16 1  
    39   16   17 2  
    40   18   16 1  
    41   18   19 1  
    42   18   38 1  
    43   18   71 1  
    44   19   20 1  
    45   19   72 1  
    46   20   21 2  
    47   22   20 1  
    48   22   23 1  
    49   22   32 1  
    50   22   73 1  
    51   23   24 1  
    52   23   74 1  
    53   24   25 2  
    54   24   26 1  
    55   26   27 2  
    56   26   31 1  
    57   27   28 1  
    58   27   75 1  
    59   28   29 2  
    60   29   30 1  
    61   29   76 1  
    62   30   31 2  
    63   30   77 1  
    64   32   33 1  
    65   32   37 1  
    66   32   78 1  
    67   33   34 1  
    68   33   79 1  
    69   33   80 1  
    70   34   35 1  
    71   34   81 1  
    72   34   82 1  
    73   35   36 1  
    74   35   83 1  
    75   35   84 1  
    76   36   37 1  
    77   36   85 1  
    78   36   86 1  
    79   37   87 1  
    80   37   88 1  
    81   38   39 1  
    82   38   40 1  
    83   38   41 1  
    84   39   89 1  
    85   39   90 1  
    86   39   91 1  
    87   40   92 1  
    88   40   93 1  
    89   40   94 1  
    90   41   95 1  
    91   41   96 1  
    92   41   97 1  
    93   42   43 1  
    94   42   44 1  
    95   42   45 1  
    96   43   98 1  
    97   44   99 1  
    98   45   46 2  
    99   45   47 1  
   100   47   48 1  
   101   47  100 1  
   102   48   49 1  
   103   48   50 1  
   104   48  101 1  
   105   49   50 1  
   106   49  102 1  
   107   49  103 1  
   108   50  104 1  
   109   50  105 1  
