#

@<TRIPOS>MOLECULE
LIG
 31  33  0 0 0
SMALL
GASTEIGER

@<TRIPOS>ATOM
      1 O10        -2.2740   -0.7510   -0.2130 O.2       1 LIG        -0.2748
      2 C7         -1.1000   -0.7050    0.1700 C.2       1 LIG         0.2266
      3 N8         -0.0180   -1.2710   -0.4380 N.am      1 LIG        -0.2278
      4 C12        -0.0760   -2.0200   -1.7000 C.3       1 LIG         0.1317
      5 C14        -0.9180   -3.3240   -1.6470 C.2       1 LIG         0.3762
      6 O16        -0.5900   -4.1550   -0.7590 O.co2     1 LIG        -0.2443
      7 O15        -1.8470   -3.4480   -2.5000 O.co2     1 LIG        -0.2443
      8 C13        -0.5860   -1.1450   -2.8350 C.3       1 LIG        -0.0354
      9 C2         -0.6520    0.0040    1.4030 C.3       1 LIG         0.0503
     10 C3          0.8440   -0.1960    1.4400 C.3       1 LIG         0.0503
     11 C9          1.1520   -0.9830    0.2060 C.2       1 LIG         0.2266
     12 O11         2.2900   -1.2540   -0.1790 O.2       1 LIG        -0.2748
     13 C1         -0.8090    1.5210    1.4170 C.3       1 LIG        -0.0289
     14 C6         -0.3240    2.1480    0.1200 C.3       1 LIG        -0.0492
     15 C5          1.1780    1.9540    0.1840 C.3       1 LIG        -0.0492
     16 C17         0.3250    1.8910    2.3360 C.3       1 LIG        -0.0459
     17 C4          1.3870    1.2280    1.4990 C.3       1 LIG        -0.0289
     18 H1          0.9400   -2.3330   -1.9550 H         1 LIG         0.0620
     19 H2         -0.0740   -0.1820   -2.8310 H         1 LIG         0.0253
     20 H3         -1.6560   -0.9440   -2.7370 H         1 LIG         0.0253
     21 H4         -0.4190   -1.6260   -3.8030 H         1 LIG         0.0253
     22 H5         -1.1150   -0.4530    2.2820 H         1 LIG         0.0404
     23 H6          1.1270   -0.7710    2.3260 H         1 LIG         0.0404
     24 H7         -1.8000    1.8620    1.7280 H         1 LIG         0.0308
     25 H8         -0.5520    3.2180    0.1040 H         1 LIG         0.0268
     26 H9         -0.7610    1.6970   -0.7740 H         1 LIG         0.0268
     27 H10         1.6700    2.9300    0.2050 H         1 LIG         0.0268
     28 H11         1.5590    1.4000   -0.6760 H         1 LIG         0.0268
     29 H12         0.2260    1.4350    3.3260 H         1 LIG         0.0271
     30 H13         0.4640    2.9730    2.4160 H         1 LIG         0.0271
     31 H14         2.4070    1.3000    1.8840 H         1 LIG         0.0308
@<TRIPOS>BOND
     1   21    8 1  
     2    8   19 1  
     3    8   20 1  
     4    8    4 1  
     5    7    5 1  
     6   18    4 1  
     7    4    5 1  
     8    4    3 1  
     9    5    6 2  
    10   26   14 1  
    11   28   15 1  
    12    3    2 1  
    13    3   11 1  
    14    1    2 2  
    15   12   11 2  
    16   25   14 1  
    17   14   15 1  
    18   14   13 1  
    19    2    9 1  
    20   15   27 1  
    21   15   17 1  
    22   11   10 1  
    23    9   13 1  
    24    9   10 1  
    25    9   22 1  
    26   13   24 1  
    27   13   16 1  
    28   10   17 1  
    29   10   23 1  
    30   17   31 1  
    31   17   16 1  
    32   16   30 1  
    33   16   29 1  
