@<TRIPOS>MOLECULE
miren.pdb
 48 51 0 0 0
SMALL
GASTEIGER

@<TRIPOS>ATOM
      1  C3        23.6740   19.3780    1.5040 C.ar    1  LIG1        0.1057
      2  C4        23.5820   18.0470    1.9580 C.ar    1  LIG1        0.1497
      3  C5        23.6890   16.9570    1.0640 C.ar    1  LIG1        0.0414
      4  C6        23.8420   17.2570   -0.2960 C.ar    1  LIG1        0.1273
      5  C7        23.9800   18.5640   -0.7530 C.ar    1  LIG1        0.0225
      6  C8        23.9070   19.6230    0.1470 C.ar    1  LIG1        0.1347
      7  C9        22.5680   17.4780    8.1980 C.ar    1  LIG1        0.1613
      8  C10       22.0620   16.7360    7.1270 C.ar    1  LIG1       -0.0156
      9  C11       22.2630   17.1690    5.8130 C.ar    1  LIG1       -0.0474
     10  C12       22.9610   18.3560    5.5620 C.ar    1  LIG1        0.0211
     11  C13       23.4180   19.1320    6.6320 C.ar    1  LIG1       -0.0059
     12  C14       23.2150   18.6930    7.9410 C.ar    1  LIG1        0.1591
     13  C17       22.7790   15.2700    2.7490 C.ar    1  LIG1       -0.0426
     14  C18       23.2230   14.5430    3.8660 C.ar    1  LIG1       -0.0548
     15  C19       22.3350   14.1890    4.8830 C.ar    1  LIG1       -0.0199
     16  C20       21.0090   14.5990    4.8040 C.ar    1  LIG1        0.1169
     17  C21       20.5760   15.4080    3.7660 C.ar    1  LIG1       -0.0199
     18  C22       21.4570   15.7390    2.7360 C.ar    1  LIG1       -0.0548
     19  C         23.2120   18.7840    4.1850 C.ar    1  LIG1        0.1394
     20  C1        23.2540   20.0840    3.8780 C.ar    1  LIG1        0.0288
     21  C2        23.5140   20.4770    2.4870 C.ar    1  LIG1        0.1966
     22  C15       21.3850   16.1590    9.7450 C.3     1  LIG1        0.0790
     23  C16       23.6830   15.5170    1.5590 C.3     1  LIG1        0.0046
     24  O         23.5690   21.6710    2.2190 O.2     1  LIG1       -0.2869
     25  O1        23.3990   17.7500    3.2930 O.2     1  LIG1       -0.4541
     26  O2        22.4310   17.0960    9.5070 O.3     1  LIG1       -0.4915
     27  O3        23.6770   19.4440    8.9880 O.3     1  LIG1       -0.5033
     28  O4        24.0690   20.8940   -0.3240 O.3     1  LIG1       -0.5058
     29  O5        23.8730   16.2880   -1.2560 O.3     1  LIG1       -0.5062
     30  O6        20.0940   14.2110    5.7380 O.3     1  LIG1       -0.5068
     31  H         23.2120   19.1940    9.8000 H       1  LIG1        0.2923
     32  H1        24.5510   21.4360    0.3200 H       1  LIG1        0.2922
     33  H2        23.5940   16.7110   -2.0840 H       1  LIG1        0.2921
     34  H3        19.3250   14.8010    5.6730 H       1  LIG1        0.2921
     35  H4        23.1060   20.8000    4.6060 H       1  LIG1        0.0693
     36  H5        24.1360   18.7470   -1.7560 H       1  LIG1        0.0691
     37  H6        21.5380   15.8650    7.3070 H       1  LIG1        0.0655
     38  H7        21.8960   16.6120    5.0260 H       1  LIG1        0.0626
     39  H8        23.9030   20.0250    6.4540 H       1  LIG1        0.0662
     40  H9        21.3510   15.9190   10.7870 H       1  LIG1        0.0660
     41  H10       21.5680   15.2690    9.1800 H       1  LIG1        0.0660
     42  H11       20.4500   16.5850    9.4470 H       1  LIG1        0.0660
     43  H12       24.6820   15.2540    1.8370 H       1  LIG1        0.0364
     44  H13       23.3030   14.9190    0.7570 H       1  LIG1        0.0364
     45  H14       24.2150   14.2680    3.9350 H       1  LIG1        0.0622
     46  H15       22.6600   13.6280    5.6860 H       1  LIG1        0.0654
     47  H16       19.6070   15.7640    3.7550 H       1  LIG1        0.0654
     48  H17       21.1330   16.3340    1.9580 H       1  LIG1        0.0622
@<TRIPOS>BOND
     1     1     6   ar
     2     1     2   ar
     3     1    21   ar
     4     2     3   ar
     5     2    25   ar
     6     3     4   ar
     7     3    23    1
     8     4    29    1
     9     4     5   ar
    10     5    36    1
    11     5     6   ar
    12     6    28    1
    13     7     8   ar
    14     7    12   ar
    15     7    26    1
    16     8     9   ar
    17     8    37    1
    18     9    38    1
    19     9    10   ar
    20    10    19    1
    21    10    11   ar
    22    11    39    1
    23    11    12   ar
    24    12    27    1
    25    13    23    1
    26    13    18   ar
    27    13    14   ar
    28    14    45    1
    29    14    15   ar
    30    15    16   ar
    31    15    46    1
    32    16    17   ar
    33    16    30    1
    34    17    18   ar
    35    17    47    1
    36    18    48    1
    37    19    25   ar
    38    19    20   ar
    39    20    21   ar
    40    20    35    1
    41    21    24    2
    42    22    41    1
    43    22    42    1
    44    22    26    1
    45    22    40    1
    46    23    44    1
    47    23    43    1
    48    27    31    1
    49    28    32    1
    50    29    33    1
    51    30    34    1
